***********************************************************
*
* PLVA650A
*
* Nexperia
*
* Low-voltage avalanche regulator diodes
* VFmax = 0,9V   @ IF = 10mA
* IRmax = 20µA   @ VR = 0,8VZnom
* VZmax = 5,2V   @ IZ = 250µA
* IZSM  = 250mA  @ tp = 100µs
*
*
*
* Package pinning does not match Spice model pinning.
* Package: SOT23
*
* Package Pin 1: Anode
* Package Pin 2: Not Connected
* Package Pin 3: Cathode
*
*
* Extraction date (week/year): #
* Simulator: PSPICE
*
***********************************************************
*
.MODEL PLVA650A D
+ IS=535.74E-18
+ N=1.0029
+ RS=.29276
+ IKF=2.5050
+ CJO=119.42E-12
+ M=.32565
+ VJ=.62169
+ ISR=216.91E-9
+ NR=4.9950
+ BV=5.1893
+ IBV=.21213
+ TT=132.15E-9
.ENDS
*