Version 4
SHEET 1 1116 744
WIRE 640 -160 304 -160
WIRE 192 -144 -288 -144
WIRE -752 -112 -880 -112
WIRE -544 -112 -672 -112
WIRE -176 -112 -544 -112
WIRE 80 -112 -176 -112
WIRE 80 -96 80 -112
WIRE 192 -96 192 -144
WIRE 304 -96 304 -160
WIRE -544 -80 -544 -112
WIRE -880 -64 -880 -112
WIRE -288 -32 -288 -144
WIRE -16 -32 -288 -32
WIRE 640 -32 640 -160
WIRE 640 -32 400 -32
WIRE 784 -32 640 -32
WIRE 848 -32 784 -32
WIRE 976 -32 848 -32
WIRE 784 -16 784 -32
WIRE 848 -16 848 -32
WIRE 976 -16 976 -32
WIRE -880 32 -880 16
WIRE -544 32 -544 16
WIRE -176 64 -176 -112
WIRE -16 64 -176 64
WIRE 448 64 400 64
WIRE 784 64 784 48
WIRE 832 64 784 64
WIRE 848 64 848 48
WIRE 848 64 832 64
WIRE 448 80 448 64
WIRE 832 80 832 64
WIRE -176 96 -176 64
WIRE 976 96 976 64
WIRE 448 160 448 144
WIRE 448 160 400 160
WIRE 544 160 448 160
WIRE 640 160 640 -32
WIRE 640 160 624 160
WIRE -16 256 -144 256
WIRE -144 288 -144 256
WIRE -16 352 -32 352
WIRE 480 352 400 352
WIRE 592 352 480 352
WIRE -144 400 -144 368
WIRE 480 416 480 352
WIRE 592 432 592 352
WIRE 240 448 240 416
WIRE 240 448 192 448
WIRE 288 448 240 448
WIRE 320 464 320 416
WIRE -32 480 -32 352
WIRE 16 480 -32 480
WIRE 64 480 64 416
WIRE 64 480 16 480
WIRE 192 480 192 448
WIRE 288 496 288 448
WIRE 16 512 16 480
WIRE 480 512 480 496
WIRE 544 512 480 512
WIRE 592 512 592 496
WIRE 592 512 544 512
WIRE 544 544 544 512
WIRE -288 592 -288 -32
WIRE -144 592 -288 592
WIRE 144 592 144 416
WIRE 144 592 -144 592
WIRE 192 608 192 560
WIRE 240 608 192 608
WIRE 288 608 288 560
WIRE 288 608 240 608
WIRE 240 640 240 608
FLAG 544 544 0
FLAG -144 400 0
FLAG -144 656 0
FLAG -880 32 0
FLAG -176 160 0
FLAG 832 80 0
FLAG 976 96 0
FLAG -544 32 0
FLAG 16 512 0
FLAG 320 464 0
FLAG 240 640 0
FLAG -880 -112 Vpower
IOPIN -880 -112 In
FLAG 976 -32 Output
IOPIN 976 -32 Out
FLAG -544 -112 Vreg
SYMBOL PowerProducts\\LTC3649 192 160 R0
SYMATTR InstName U1
SYMBOL res 464 400 R0
SYMATTR InstName R1
SYMATTR Value 10k
SYMBOL cap 576 432 R0
SYMATTR InstName C1
SYMATTR Value 10n
SYMBOL res -160 272 R0
SYMATTR InstName R2
SYMATTR Value 200k
SYMBOL res 176 464 R0
SYMATTR InstName R3
SYMATTR Value 100k
SYMBOL cap 272 496 R0
SYMATTR InstName C2
SYMATTR Value 10n
SYMBOL cap -160 592 R0
WINDOW 0 26 15 Left 2
WINDOW 3 24 48 Left 2
SYMATTR InstName C3
SYMATTR Value 2.2µ
SYMBOL voltage -880 -80 R0
SYMATTR InstName V1
SYMATTR Value 36
SYMBOL cap -192 96 R0
SYMATTR InstName C4
SYMATTR Value 22µ
SYMBOL cap 432 80 R0
SYMATTR InstName C5
SYMATTR Value 0.1µ
SYMBOL ind 528 176 R270
WINDOW 0 32 56 VTop 2
WINDOW 3 5 56 VBottom 2
SYMATTR InstName L1
SYMATTR Value 6.8µ
SYMBOL cap 768 -16 R0
SYMATTR InstName C6
SYMATTR Value 47µ
SYMBOL cap 832 -16 R0
SYMATTR InstName C7
SYMATTR Value 47µ
SYMBOL res 960 -32 R0
SYMATTR InstName R4
SYMATTR Value 3.3
SYMBOL tvs_bipolar_diode -560 -48 R0
WINDOW 0 24 -32 Left 2
WINDOW 3 25 61 Left 2
SYMATTR InstName U2
SYMATTR Value SMBJ36CA
SYMBOL res -768 -96 R270
WINDOW 0 32 56 VTop 2
WINDOW 3 0 56 VBottom 2
SYMATTR InstName R5
SYMATTR Value {R}
TEXT -480 680 Left 2 !.tran 0 10m 0
TEXT -480 704 Left 2 !.lib SPICE_SMBJxxxxCA.lib
TEXT -480 728 Left 2 !.step param R list 1 5 10 20
