Version 4
SHEET 1 1316 680
WIRE 48 -224 -128 -224
WIRE 496 -224 320 -224
WIRE 896 -224 752 -224
WIRE -128 -144 -128 -224
WIRE 48 -144 48 -224
WIRE 320 -144 320 -224
WIRE 496 -144 496 -224
WIRE 752 -144 752 -224
WIRE 896 -144 896 -224
WIRE -128 -16 -128 -64
WIRE -48 -16 -128 -16
WIRE 48 -16 48 -64
WIRE 48 -16 -48 -16
WIRE 320 -16 320 -64
WIRE 400 -16 320 -16
WIRE 496 -16 496 -64
WIRE 496 -16 400 -16
WIRE 752 -16 752 -64
WIRE 832 -16 752 -16
WIRE 896 -16 896 -64
WIRE 896 -16 832 -16
WIRE -48 16 -48 -16
WIRE 400 16 400 -16
WIRE 832 16 832 -16
WIRE 304 144 96 144
WIRE 96 192 96 144
WIRE 304 192 304 144
WIRE 96 320 96 272
WIRE 208 320 96 320
WIRE 304 320 304 272
WIRE 304 320 208 320
WIRE 208 336 208 320
FLAG -48 16 0
FLAG 400 16 0
FLAG 832 16 0
FLAG 208 336 0
SYMBOL voltage 320 -160 R0
WINDOW 123 0 0 Left 0
WINDOW 39 0 0 Left 0
SYMATTR InstName V2
SYMATTR Value PWL file=V45.txt
SYMBOL res 32 -160 R0
SYMATTR InstName R1
SYMATTR Value 1
SYMBOL res 480 -160 R0
SYMATTR InstName R2
SYMATTR Value 1
SYMBOL res 880 -160 R0
SYMATTR InstName R3
SYMATTR Value 1
SYMBOL voltage -128 -160 R0
WINDOW 123 0 0 Left 0
WINDOW 39 0 0 Left 0
SYMATTR InstName V1
SYMATTR Value PWL file=V44.txt
SYMBOL current 752 -64 R180
WINDOW 0 24 80 Left 2
WINDOW 3 -225 -3 Left 2
WINDOW 123 0 0 Left 0
WINDOW 39 0 0 Left 0
SYMATTR InstName I1
SYMATTR Value PWL file=I42.txt
SYMBOL current 96 272 R180
WINDOW 0 24 80 Left 2
WINDOW 3 24 0 Left 2
WINDOW 123 0 0 Left 0
WINDOW 39 0 0 Left 0
SYMATTR InstName I2
SYMATTR Value PWL file=I45.txt
SYMBOL res 288 176 R0
SYMATTR InstName R4
SYMATTR Value 1
TEXT -160 360 Left 2 !.tran 100u
