* DIODES INCORPORATED AND ITS AFFILIATED COMPANIES AND SUBSIDIARIES (COLLECTIVELY, "DIODES") 
* PROVIDE THESE SPICE MODELS AND DATA (COLLECTIVELY, THE "SM DATA") "AS IS" AND WITHOUT ANY 
* REPRESENTATIONS OR WARRANTIES, EXPRESS OR IMPLIED, INCLUDING ANY WARRANTY OF MERCHANTABILITY 
* OR FITNESS FOR A PARTICULAR PURPOSE, ANY WARRANTY ARISING FROM COURSE OF DEALING OR COURSE OF 
* PERFORMANCE, OR ANY WARRANTY THAT ACCESS TO OR OPERATION OF THE SM DATA WILL BE UNINTERRUPTED, 
* OR THAT THE SM DATA OR ANY SIMULATION USING THE SM DATA WILL BE ERROR FREE. TO THE MAXIMUM 
* EXTENT PERMITTED BY LAW, IN NO EVENT WILL DIODES BE LIABLE FOR ANY DIRECT OR INDIRECT, 
* SPECIAL, INCIDENTAL, PUNITIVE OR CONSEQUENTIAL DAMAGES ARISING OUT OF OR IN CONNECTION WITH 
* THE PRODUCTION OR USE OF SM DATA, HOWEVER CAUSED AND UNDER WHATEVER CAUSE OF ACTION OR THEORY 
* OF LIABILITY BROUGHT (INCLUDING, WITHOUT LIMITATION, UNDER ANY CONTRACT, NEGLIGENCE OR OTHER 
* TORT THEORY OF LIABILITY), EVEN IF DIODES HAS BEEN ADVISED OF THE POSSIBILITY OF SUCH DAMAGES, 
* AND DIODES' TOTAL LIABILITY (WHETHER IN CONTRACT, TORT OR OTHERWISE) WITH REGARD TO THE SM 
* DATA WILL NOT, IN THE AGGREGATE, EXCEED ANY SUMS PAID BY YOU TO DIODES FOR THE SM DATA.



******************************************************************************************************************************************
Note:  The following SPICE model is for the transistor element.
When applying this SPICE model to your circuit simulation be certain
to add R1 and/or R2 values per the table found on sheet 1 of the data
sheet.  Allow +/- 30% resistance tolerance and +/- 20% for R2/R1 ratio 
tolerance.

*SRC=DDC114EU;DI_DDC114EU;BJTs NPN; Si;  50.0V  0.150A  200MHz   Diodes Inc. PBTs
.MODEL DI_DDC114EU  NPN (IS=16.8f NF=1.00 BF=766 VAF=127
+ IKF=91.1m ISE=3.59p NE=2.00 BR=4.00 NR=1.00
+ VAR=28.0 IKR=0.225 RE=0.665 RB=2.66 RC=0.266
+ XTB=1.5 CJE=11.3p VJE=1.10 MJE=0.500 CJC=4.50p VJC=0.300
+ MJC=0.300 TF=549p TR=119n EG=1.12 )
*****************************************************************************************************************************************